[TITLE]
;;Project Title/Notes

[OPTIONS]
;;Option             Value
FLOW_UNITS           CMS
INFILTRATION         MODIFIED_GREEN_AMPT
FLOW_ROUTING         DYNWAVE
LINK_OFFSETS         ELEVATION
MIN_SLOPE            0
ALLOW_PONDING        NO
SKIP_STEADY_STATE    NO

START_DATE           05/01/2021
START_TIME           00:00:00
REPORT_START_DATE    05/01/2021
REPORT_START_TIME    05:00:00
END_DATE             05/01/2021
END_TIME             23:59:00
SWEEP_START          05/01
SWEEP_END            05/01
DRY_DAYS             0
REPORT_STEP          01:00:00
WET_STEP             01:00:00
DRY_STEP             01:00:00
ROUTING_STEP         0:00:30 


INERTIAL_DAMPING     PARTIAL
NORMAL_FLOW_LIMITED  BOTH
FORCE_MAIN_EQUATION  H-W
VARIABLE_STEP        0.75
LENGTHENING_STEP     10
MIN_SURFAREA         1.167
MAX_TRIALS           8
HEAD_TOLERANCE       0.0015
SYS_FLOW_TOL         5
LAT_FLOW_TOL         5
MINIMUM_STEP         0.5
THREADS              4

[EVAPORATION]
;;Data Source    Parameters
;;-------------- ----------------
CONSTANT         0.0
DRY_ONLY         NO

[JUNCTIONS]
;;Name           Elevation  MaxDepth   InitDepth  SurDepth   Aponded   
;;-------------- ---------- ---------- ---------- ---------- ----------
J1               21         1.2        0          0          0         
MC-Z             20.995     1.2        0          0          0         
MC-1             20.991     1.2        0          0          0         
MC-1A            20.782     1.2        0          0          0         
MC-2             20.679     1.2        0          0          0         
MC-2A            20.526     1.2        0          0          0         
MC-3             20.381     1.2        0          0          0         
MC-3A            20.262     1.2        0          0          0         
MC-3B            20.122     1.2        0          0          0         
LAT-A            19.986     1.2        0          0          0         
MC-4             19.856     1.2        0          0          0         
MC-5             19.816     1.2        0          0          0         
MC-5A            19.812     1.2        0          0          0         
MC-5B            19.751     1.2        0          0          0         
MC-6             19.702     1.2        0          0          0         
MC-6A            19.604     1.2        0          0          0         
MC-6B            19.580     1.2        0          0          0         
MC-7             19.458     1.2        0          0          0         
MC-8             19.390     1.2        0          0          0         
MC-9             19.342     1.2        0          0          0         
MC-10            19.266     1.2        0          0          0         
MC-10A           19.221     1.2        0          0          0         
MC-10B           19.142     1.2        0          0          0         
MC-10C           19.136     1.2        0          0          0         
MC-10D           19.117     1.2        0          0          0         
MC-10E           19.089     1.2        0          0          0         
MC-10F           18.928     1.2        0          0          0         
LAT-B            18.855     1.2        0          0          0         
MC-11            18.805     1.1        0          0          0         
MC-12            18.746     1.1        0          0          0         
MC-13            18.672     1.1        0          0          0         
MC-13A           18.628     1.1        0          0          0         
MC-13B           18.536     1.1        0          0          0         
MC-13C           18.507     1.1        0          0          0         
MC-14            18.483     1.1        0          0          0         
MC-14A           18.416     1.1        0          0          0         
MC-14B           18.411     1.1        0          0          0         
MC-14C           18.313     1.1        0          0          0         
MC-14D           18.242     1.1        0          0          0         
MC-14E           18.213     1.1        0          0          0         
MC-15            18.128     1.1        0          0          0         
LAT-C            18.037     1          0          0          0         
MC-15A           17.955     1          0          0          0         
MC-15B           17.855     1          0          0          0         
MC-16            17.739     1          0          0          0         
LAT-D            17.651     1          0          0          0         
LAT-E            17.571     1          0          0          0         
MC-17            17.545     1          0          0          0         
MC-17A           17.498     1          0          0          0         
MC-17B           17.415     1          0          0          0         
MC-18            17.160     1          0          0          0         
MC-19            16.987     1          0          0          0         
MC-19A           16.903     1          0          0          0         
MC-19B           16.871     1          0          0          0         
MC-FGH           16.838     1          0          0          0         
J1-1             20.991     0.4        0          0          0         
J2-1             20.9885    0.4        0          0          0         
J1-1A            21.282     0.4        0          0          0         
J2-1A            21.2795    0.4        0          0          0         
J1-2             20.679     0.4        0          0          0         
J2-2             20.6765    0.4        0          0          0         
J1-2A            21.026     0.4        0          0          0         
J2-2A            21.0235    0.4        0          0          0         
J1-3             20.381     0.4        0          0          0         
J2-3             20.3785    0.4        0          0          0         
J1-3A            20.762     0.4        0          0          0         
J2-3A            20.7595    0.4        0          0          0         
J1-3B            20.622     0.4        0          0          0         
J2-3B            20.6195    0.4        0          0          0         
J1-A             19.986     0.8        0          0          0         
J2-A             19.9835    0.8        0          0          0         
J1-4             19.856     0.4        0          0          0         
J2-4             19.8535    0.4        0          0          0         
J1-5             19.816     0.4        0          0          0         
J2-5             19.8135    0.4        0          0          0         
J1-5A            20.312     0.4        0          0          0         
J2-5A            20.3095    0.4        0          0          0         
J1-5B            20.251     0.4        0          0          0         
J2-5B            20.2485    0.4        0          0          0         
J1-6             19.702     0.4        0          0          0         
J2-6             19.6995    0.4        0          0          0         
J1-6A            20.104     0.4        0          0          0         
J2-6A            20.1015    0.4        0          0          0         
J1-6B            20.080     0.4        0          0          0         
J2-6B            20.0775    0.4        0          0          0         
J1-7             19.458     0.4        0          0          0         
J2-7             19.4555    0.4        0          0          0         
J1-8             19.390     0.4        0          0          0         
J2-8             19.3875    0.4        0          0          0         
J1-9             19.342     0.4        0          0          0         
J2-9             19.3395    0.4        0          0          0         
J1-10            19.266     0.4        0          0          0         
J2-10            19.2635    0.4        0          0          0         
J1-10A           19.721     0.4        0          0          0         
J2-10A           19.7185    0.4        0          0          0         
J1-10B           19.642     0.4        0          0          0         
J2-10B           19.6395    0.4        0          0          0         
J1-10C           19.636     0.4        0          0          0         
J2-10C           19.6335    0.4        0          0          0         
J1-10D           19.617     0.4        0          0          0         
J2-10D           19.6145    0.4        0          0          0         
J1-10E           19.589     0.4        0          0          0         
J2-10E           19.5865    0.4        0          0          0         
J1-10F           19.428     0.4        0          0          0         
J2-10F           19.4255    0.4        0          0          0         
J1-B             18.855     0.6        0          0          0         
J2-B             18.8525    0.6        0          0          0         
J1-11            18.805     0.4        0          0          0         
J2-11            18.8025    0.4        0          0          0         
J1-12            18.746     0.4        0          0          0         
J2-12            18.7435    0.4        0          0          0         
J1-13            18.672     0.4        0          0          0         
J2-13            18.6695    0.4        0          0          0         
J1-13A           19.128     0.4        0          0          0         
J2-13A           19.1255    0.4        0          0          0         
J1-13B           19.036     0.4        0          0          0         
J2-13B           19.0335    0.4        0          0          0         
J1-13C           19.007     0.4        0          0          0         
J2-13C           19.0045    0.4        0          0          0         
J1-14            18.483     0.4        0          0          0         
J2-14            18.4805    0.4        0          0          0         
J1-14A           18.916     0.4        0          0          0         
J2-14A           18.9135    0.4        0          0          0         
J1-14B           18.911     1.2        0          0          0         
J2-14B           18.9085    0.4        0          0          0         
J1-14C           18.813     0.4        0          0          0         
J2-14C           18.8105    0.4        0          0          0         
J1-14D           18.742     0.4        0          0          0         
J2-14D           18.7395    0.4        0          0          0         
J1-14E           18.713     0.4        0          0          0         
J2-14E           18.7105    0.4        0          0          0         
J1-15            18.128     0.4        0          0          0         
J2-15            18.1255    0.4        0          0          0         
J1-C             18.037     0.8        0          0          0         
J2-C             18.0345    0.8        0          0          0         
J1-15A           18.455     0.4        0          0          0         
J2-15A           18.4525    0.4        0          0          0         
J1-15B           18.355     0.4        0          0          0         
J2-15B           18.3525    0.4        0          0          0         
J1-16            17.739     0.4        0          0          0         
J2-16            17.7365    0.4        0          0          0         
J1-D             17.651     0.6        0          0          0         
J2-D             17.6485    0.6        0          0          0         
J1-E             17.571     0.6        0          0          0         
J2-E             17.5685    0.6        0          0          0         
J1-17            17.545     0.4        0          0          0         
J2-17            17.5425    0.4        0          0          0         
J1-17A           17.998     0.4        0          0          0         
J2-17A           17.9955    0.4        0          0          0         
J1-17B           17.915     0.4        0          0          0         
J2-17B           17.9125    0.4        0          0          0         
J1-18            17.160     0.4        0          0          0         
J2-18            17.1575    0.4        0          0          0         
J1-19            16.987     0.4        0          0          0         
J2-19            16.9845    0.4        0          0          0         
J1-19A           17.403     0.4        0          0          0         
J2-19A           17.4005    0.4        0          0          0         
J1-19B           17.371     0.4        0          0          0         
J2-19B           17.3685    0.4        0          0          0         
J1-F             16.838     0.8        0          0          0         
J2-F             16.8355    0.8        0          0          0         
J1-G             16.838     0.9        0          0          0         
J2-G             16.8355    0.9        0          0          0         
J1-H             16.838     0.7        0          0          0         
J2-H             16.8355    0.7        0          0          0         
JZ-1             21.495     0.4        0          0          0         
JZ-2             21.4925    0.4        0          0          0         

[OUTFALLS]
;;Name           Elevation  Type       Stage Data       Gated    Route To        
;;-------------- ---------- ---------- ---------------- -------- ----------------
OF-Z             0          FREE                        NO                       
OF-1             10         FREE                        NO                       
OF-1A            10         FREE                        NO                       
OF-2             10         FREE                        NO                       
OF-2A            10         FREE                        NO                       
OF-3             10         FREE                        NO                       
OF-3A            10         FREE                        NO                       
OF-3B            10         FREE                        NO                       
OF-A             10         FREE                        NO                       
OF-4             10         FREE                        NO                       
OF-5             10         FREE                        NO                       
OF-5A            10         FREE                        NO                       
OF-5B            10         FREE                        NO                       
OF-6             10         FREE                        NO                       
OF-6A            10         FREE                        NO                       
OF-6B            10         FREE                        NO                       
OF-7             10         FREE                        NO                       
OF-8             10         FREE                        NO                       
OF-9             10         FREE                        NO                       
OF-10            10         FREE                        NO                       
OF-10A           10         FREE                        NO                       
OF-10B           10         FREE                        NO                       
OF-10C           10         FREE                        NO                       
OF-10D           10         FREE                        NO                       
OF-10E           10         FREE                        NO                       
OF-10F           10         FREE                        NO                       
OF-B             10         FREE                        NO                       
OF-11            10         FREE                        NO                       
OF-12            10         FREE                        NO                       
OF-13            10         FREE                        NO                       
OF-13A           10         FREE                        NO                       
OF-13B           10         FREE                        NO                       
OF-13C           10         FREE                        NO                       
OF-14            10         FREE                        NO                       
OF-14A           10         FREE                        NO                       
OF-14B           10         FREE                        NO                       
OF-14C           10         FREE                        NO                       
OF-14D           10         FREE                        NO                       
OF-14E           10         FREE                        NO                       
OF-15            10         FREE                        NO                       
OF-C             10         FREE                        NO                       
OF-15A           10         FREE                        NO                       
OF-15B           10         FREE                        NO                       
OF-16            10         FREE                        NO                       
OF-D             10         FREE                        NO                       
OF-E             10         FREE                        NO                       
OF-17            10         FREE                        NO                       
OF-17A           10         FREE                        NO                       
OF-17B           10         FREE                        NO                       
OF-18            10         FREE                        NO                       
OF-19            10         FREE                        NO                       
OF-19A           10         FREE                        NO                       
OF-19B           10         FREE                        NO                       
OF-F             10         FREE                        NO                       
OF-G             10         FREE                        NO                       
OF-H             10         FREE                        NO                       

[STORAGE]
;;Name           Elev.    MaxDepth   InitDepth  Shape      Curve Type/Params            SurDepth  Fevap    Psi      Ksat     IMD     
;;-------------- -------- ---------- ----------- ---------- ---------------------------- --------- --------          -------- --------
ZamoraDam        21       9.5        9          TABULAR    ZamoraDam                    0         0       

[CONDUITS]
;;Name           From Node        To Node          Length     Roughness  InOffset   OutOffset  InitFlow   MaxFlow   
;;-------------- ---------------- ---------------- ---------- ---------- ---------- ---------- ---------- ----------
C-Z-1            MC-Z             MC-1             123.5      0.015      *          *          0          0         
C-1-1A           MC-1             MC-1A            15         0.015      *          *          0          0         
C-1A-2           MC-1A            MC-2             348.2      0.015      *          *          0          0         
C-2-2A           MC-2             MC-2A            171.8      0.015      *          *          0          0         
C-2A-3           MC-2A            MC-3             255.0      0.015      *          *          0          0         
C-3-3A           MC-3             MC-3A            241.2      0.015      *          *          0          0         
C-3A-3B          MC-3A            MC-3B            199.4      0.015      *          *          0          0         
C-3B-A           MC-3B            LAT-A            232.4      0.015      *          *          0          0         
C-4-5            MC-4             MC-5             215.6      0.015      *          *          0          0         
C-5-5A           MC-5             MC-5A            81.5       0.015      *          *          0          0         
C-5A-5B          MC-5A            MC-5B            7          0.015      *          *          0          0         
C-5B-6           MC-5B            MC-6             121.5      0.015      *          *          0          0         
C-6-6A           MC-6             MC-6A            98         0.015      *          *          0          0         
C-6A-6B          MC-6A            MC-6B            197.0      0.015      *          *          0          0         
C-6B-7           MC-6B            MC-7             47         0.015      *          *          0          0         
C-7-8            MC-7             MC-8             244.5      0.015      *          *          0          0         
C-8-9            MC-8             MC-9             136.5      0.015      *          *          0          0         
C-9-10           MC-9             MC-10            95.5       0.015      *          *          0          0         
C-10-10A         MC-10            MC-10A           152.1      0.015      *          *          0          0         
C-10A-10B        MC-10A           MC-10B           90.9       0.015      *          *          0          0         
C-10B-10C        MC-10B           MC-10C           158.1      0.015      *          *          0          0         
C-10C-10D        MC-10C           MC-10D           11.9       0.015      *          *          0          0         
C-10D-10E        MC-10D           MC-10E           36.4       0.015      *          *          0          0         
C-10E-10F        MC-10E           MC-10F           57.6       0.015      *          *          0          0         
C-10F-B          MC-10F           LAT-B            321.5      0.015      *          *          0          0         
C-B-11           LAT-B            MC-11            146.5      0.015      *          *          0          0         
C-11-12          MC-11            MC-12            99.5       0.015      *          *          0          0         
C-12-13          MC-12            MC-13            117        0.015      *          *          0          0         
C-13-13A         MC-13            MC-13A           149.5      0.015      *          *          0          0         
C-13A-13B        MC-13A           MC-13B           87.5       0.015      *          *          0          0         
C-13B-13C        MC-13B           MC-13C           183        0.015      *          *          0          0         
C-13C-14         MC-13C           MC-14            58.3       0.015      *          *          0          0         
C-14-14A         MC-14            MC-14A           47.7       0.015      *          *          0          0         
C-14A-14B        MC-14A           MC-14B           134        0.015      *          *          0          0         
C-14B-14C        MC-14B           MC-14C           11.6       0.015      *          *          0          0         
C-14C-14D        MC-14C           MC-14D           195.4      0.015      *          *          0          0         
C-14D-14E        MC-14D           MC-14E           142.5      0.015      *          *          0          0         
C-14E-15         MC-14E           MC-15            57.5       0.015      *          *          0          0         
C-15-C           MC-15            LAT-C            170        0.015      *          *          0          0         
C-15A-15B        MC-15A           MC-15B           164.1      0.015      *          *          0          0         
C-15B-16         MC-15B           MC-16            200.5      0.015      *          *          0          0         
C-16-D           MC-16            LAT-D            231        0.015      *          *          0          0         
C-D-E            LAT-D            LAT-E            176        0.015      *          *          0          0         
C-E-17           LAT-E            MC-17            160        0.015      *          *          0          0         
C-17-17A         MC-17            MC-17A           53.3       0.015      *          *          0          0         
C-17A-17B        MC-17A           MC-17B           93.7       0.015      *          *          0          0         
C-17B-18         MC-17B           MC-18            165        0.015      *          *          0          0         
C-18-19          MC-18            MC-19            510        0.015      *          *          0          0         
C-19-19A         MC-19            MC-19A           346.7      0.015      *          *          0          0         
C-19A-19B        MC-19A           MC-19B           167.3      0.015      *          *          0          0         
C-19B-FGH        MC-19B           MC-FGH           65         0.015      *          *          0          0         
C1-Z             JZ-1             JZ-2             5          0.018      *          *          0          0         
C2-Z             JZ-2             OF-Z             100        0.018      *          *          0          0         
C1-1             J1-1             J2-1             5          0.018      *          *          0          0         
C2-1             J2-1             OF-1             100        0.018      *          *          0          0         
C1-1A            J1-1A            J2-1A            5          0.018      *          *          0          0         
C2-1A            J2-1A            OF-1A            100        0.018      *          *          0          0         
C1-2             J1-2             J2-2             5          0.018      *          *          0          0         
C2-2             J2-2             OF-2             100        0.018      *          *          0          0         
C1-2A            J1-2A            J2-2A            5          0.018      *          *          0          0         
C2-2A            J2-2A            OF-2A            100        0.018      *          *          0          0         
C1-3             J1-3             J2-3             5          0.018      *          *          0          0         
C2-3             J2-3             OF-3             100        0.015      *          *          0          0         
C1-3A            J1-3A            J2-3A            5          0.018      *          *          0          0         
C2-3A            J2-3A            OF-3A            100        0.018      *          *          0          0         
C1-3B            J1-3B            J2-3B            5          0.018      *          *          0          0         
C2-3B            J2-3B            OF-3B            100        0.018      *          *          0          0         
C1-A             J1-A             J2-A             5          0.025      *          *          0          0         
C2-A             J2-A             OF-A             100        0.025      *          *          0          0         
C1-4             J1-4             J2-4             5          0.018      *          *          0          0         
C2-4             J2-4             OF-4             100        0.018      *          *          0          0         
C1-5             J1-5             J2-5             5          0.018      *          *          0          0         
C2-5             J2-5             OF-5             100        0.018      *          *          0          0         
C1-5A            J1-5A            J2-5A            5          0.018      *          *          0          0         
C2-5A            J2-5A            OF-5A            100        0.018      *          *          0          0         
C1-5B            J1-5B            J2-5B            5          0.018      *          *          0          0         
C2-5B            J2-5B            OF-5B            100        0.018      *          *          0          0         
C1-6             J1-6             J2-6             5          0.018      *          *          0          0         
C2-6             J2-6             OF-6             100        0.018      *          *          0          0         
C1-6A            J1-6A            J2-6A            5          0.018      *          *          0          0         
C2-6A            J2-6A            OF-6A            100        0.018      *          *          0          0         
C1-6B            J1-6B            J2-6B            5          0.018      *          *          0          0         
C2-6B            J2-6B            OF-6B            100        0.018      *          *          0          0         
C1-7             J1-7             J2-7             5          0.018      *          *          0          0         
C2-7             J2-7             OF-7             100        0.018      *          *          0          0         
C1-8             J1-8             J2-8             5          0.018      *          *          0          0         
C2-8             J2-8             OF-8             100        0.018      *          *          0          0         
C1-9             J1-9             J2-9             5          0.018      *          *          0          0         
C2-9             J2-9             OF-9             100        0.018      *          *          0          0         
C1-10            J1-10            J2-10            100        0.018      *          *          0          0         
C2-10            J2-10            OF-10            100        0.018      *          *          0          0         
C1-10A           J1-10A           J2-10A           5          0.018      *          *          0          0         
C2-10A           J2-10A           OF-10A           100        0.018      *          *          0          0         