[TITLE]
;;Project Title/Notes

[OPTIONS]
;;Option             Value
FLOW_UNITS           CMS
INFILTRATION         MODIFIED_GREEN_AMPT
FLOW_ROUTING         DYNWAVE
LINK_OFFSETS         ELEVATION
MIN_SLOPE            0
ALLOW_PONDING        NO
SKIP_STEADY_STATE    NO

START_DATE           05/01/2021
START_TIME           00:00:00
REPORT_START_DATE    05/01/2021
REPORT_START_TIME    05:00:00
END_DATE             05/01/2021
END_TIME             23:59:00
SWEEP_START          05/01
SWEEP_END            05/01
DRY_DAYS             0
REPORT_STEP          01:00:00
WET_STEP             01:00:00
DRY_STEP             01:00:00
ROUTING_STEP         0:00:30 


INERTIAL_DAMPING     PARTIAL
NORMAL_FLOW_LIMITED  BOTH
FORCE_MAIN_EQUATION  H-W
VARIABLE_STEP        0.75
LENGTHENING_STEP     10
MIN_SURFAREA         1.167
MAX_TRIALS           8
HEAD_TOLERANCE       0.0015
SYS_FLOW_TOL         5
LAT_FLOW_TOL         5
MINIMUM_STEP         0.5
THREADS              4

[EVAPORATION]
;;Data Source    Parameters
;;-------------- ----------------
CONSTANT         0.0
DRY_ONLY         NO

[JUNCTIONS]
;;Name           Elevation  MaxDepth   InitDepth  SurDepth   Aponded   
;;-------------- ---------- ---------- ---------- ---------- ----------
J1               21         1.2        0          0          0         
MC-Z             20.995     1.2        0          0          0         
MC-1             20.991     1.2        0          0          0         
MC-1A            20.782     1.2        0          0          0         
MC-2             20.679     1.2        0          0          0         
MC-2A            20.526     1.2        0          0          0         
MC-3             20.381     1.2        0          0          0         
MC-3A            20.262     1.2        0          0          0         
MC-3B            20.122     1.2        0          0          0         
LAT-A            19.986     1.2        0          0          0         
MC-4             19.856     1.2        0          0          0         
MC-5             19.816     1.2        0          0          0         
MC-5A            19.812     1.2        0          0          0         
MC-5B            19.751     1.2        0          0          0         
MC-6             19.702     1.2        0          0          0         
MC-6A            19.604     1.2        0          0          0         
MC-6B            19.580     1.2        0          0          0         
MC-7             19.458     1.2        0          0          0         
MC-8             19.390     1.2        0          0          0         
MC-9             19.342     1.2        0          0          0         
MC-10            19.266     1.2        0          0          0         
MC-10A           19.221     1.2        0          0          0         
MC-10B           19.142     1.2        0          0          0         
MC-10C           19.136     1.2        0          0          0         
MC-10D           19.117     1.2        0          0          0         
MC-10E           19.089     1.2        0          0          0         
MC-10F           18.928     1.2        0          0          0         
LAT-B            18.855     1.2        0          0          0         
J1-1             20.991     0.4        0          0          0         
J2-1             20.9885    0.4        0          0          0         
J1-1A            21.282     0.4        0          0          0         
J2-1A            21.2795    0.4        0          0          0         
J1-2             20.679     0.4        0          0          0         
J2-2             20.6765    0.4        0          0          0         
J1-2A            21.026     0.4        0          0          0         
J2-2A            21.0235    0.4        0          0          0         
J1-3             20.381     0.4        0          0          0         
J2-3             20.3785    0.4        0          0          0         
J1-3A            20.762     0.4        0          0          0         
J2-3A            20.7595    0.4        0          0          0         
J1-3B            20.622     0.4        0          0          0         
J2-3B            20.6195    0.4        0          0          0         
J1-A             19.986     0.8        0          0          0         
J2-A             19.9835    0.8        0          0          0         
J1-4             19.856     0.4        0          0          0         
J2-4             19.8535    0.4        0          0          0         
J1-5             19.816     0.4        0          0          0         
J2-5             19.8135    0.4        0          0          0         
J1-5A            20.312     0.4        0          0          0         
J2-5A            20.3095    0.4        0          0          0         
J1-5B            20.251     0.4        0          0          0         
J2-5B            20.2485    0.4        0          0          0         
J1-6             19.702     0.4        0          0          0         
J2-6             19.6995    0.4        0          0          0         
J1-6A            20.104     0.4        0          0          0         
J2-6A            20.1015    0.4        0          0          0         
J1-6B            20.080     0.4        0          0          0         
J2-6B            20.0775    0.4        0          0          0         
J1-7             19.458     0.4        0          0          0         
J2-7             19.4555    0.4        0          0          0         
J1-8             19.390     0.4        0          0          0         
J2-8             19.3875    0.4        0          0          0         
J1-9             19.342     0.4        0          0          0         
J2-9             19.3395    0.4        0          0          0         
J1-10            19.266     0.4        0          0          0         
J2-10            19.2635    0.4        0          0          0         
J1-10A           19.721     0.4        0          0          0         
J2-10A           19.7185    0.4        0          0          0         
J1-10B           19.642     0.4        0          0          0         
J2-10B           19.6395    0.4        0          0          0         
J1-10C           19.636     0.4        0          0          0         
J2-10C           19.6335    0.4        0          0          0         
J1-10D           19.617     0.4        0          0          0         
J2-10D           19.6145    0.4        0          0          0         
J1-10E           19.589     0.4        0          0          0         
J2-10E           19.5865    0.4        0          0          0         
J1-10F           19.428     0.4        0          0          0         
J2-10F           19.4255    0.4        0          0          0         
J1-B             18.855     0.6        0          0          0         
J2-B             18.8525    0.6        0          0          0         
JZ-1             21.495     0.4        0          0          0         
JZ-2             21.4925    0.4        0          0          0         

[OUTFALLS]
;;Name           Elevation  Type       Stage Data       Gated    Route To        
;;-------------- ---------- ---------- ---------------- -------- ----------------
OF-Z             0          FREE                        NO                       
OF-1             10         FREE                        NO                       
OF-1A            10         FREE                        NO                       
OF-2             10         FREE                        NO                       
OF-2A            10         FREE                        NO                       
OF-3             10         FREE                        NO                       
OF-3A            10         FREE                        NO                       
OF-3B            10         FREE                        NO                       
OF-A             10         FREE                        NO                       
OF-4             10         FREE                        NO                       
OF-5             10         FREE                        NO                       
OF-5A            10         FREE                        NO                       
OF-5B            10         FREE                        NO                       
OF-6             10         FREE                        NO                       
OF-6A            10         FREE                        NO                       
OF-6B            10         FREE                        NO                       
OF-7             10         FREE                        NO                       
OF-8             10         FREE                        NO                       
OF-9             10         FREE                        NO                       
OF-10            10         FREE                        NO                       
OF-10A           10         FREE                        NO                       
OF-10B           10         FREE                        NO                       
OF-10C           10         FREE                        NO                       
OF-10D           10         FREE                        NO                       
OF-10E           10         FREE                        NO                       
OF-10F           10         FREE                        NO                       
OF-B             10         FREE                        NO                       
MC-11            18.805     FREE                        NO                       

[STORAGE]
;;Name           Elev.    MaxDepth   InitDepth  Shape      Curve Type/Params            SurDepth  Fevap    Psi      Ksat     IMD     
;;-------------- -------- ---------- ----------- ---------- ---------------------------- --------- --------          -------- --------
ZamoraDam        21       9.5        9          TABULAR    ZamoraDam                    0         0       

[CONDUITS]
;;Name           From Node        To Node          Length     Roughness  InOffset   OutOffset  InitFlow   MaxFlow   
;;-------------- ---------------- ---------------- ---------- ---------- ---------- ---------- ---------- ----------
C-Z-1            MC-Z             MC-1             123.5      0.015      *          *          0          0         
C-1-1A           MC-1             MC-1A            15         0.015      *          *          0          0         
C-1A-2           MC-1A            MC-2             348.2      0.015      *          *          0          0         
C-2-2A           MC-2             MC-2A            171.8      0.015      *          *          0          0         
C-2A-3           MC-2A            MC-3             255.0      0.015      *          *          0          0         
C-3-3A           MC-3             MC-3A            241.2      0.015      *          *          0          0         
C-3A-3B          MC-3A            MC-3B            199.4      0.015      *          *          0          0         
C-3B-A           MC-3B            LAT-A            232.4      0.015      *          *          0          0         
C-4-5            MC-4             MC-5             215.6      0.015      *          *          0          0         
C-5-5A           MC-5             MC-5A            81.5       0.015      *          *          0          0         
C-5A-5B          MC-5A            MC-5B            7          0.015      *          *          0          0         
C-5B-6           MC-5B            MC-6             121.5      0.015      *          *          0          0         
C-6-6A           MC-6             MC-6A            98         0.015      *          *          0          0         
C-6A-6B          MC-6A            MC-6B            197.0      0.015      *          *          0          0         
C-6B-7           MC-6B            MC-7             47         0.015      *          *          0          0         
C-7-8            MC-7             MC-8             244.5      0.015      *          *          0          0         
C-8-9            MC-8             MC-9             136.5      0.015      *          *          0          0         
C-9-10           MC-9             MC-10            95.5       0.015      *          *          0          0         
C-10-10A         MC-10            MC-10A           152.1      0.015      *          *          0          0         
C-10A-10B        MC-10A           MC-10B           90.9       0.015      *          *          0          0         
C-10B-10C        MC-10B           MC-10C           158.1      0.015      *          *          0          0         
C-10C-10D        MC-10C           MC-10D           11.9       0.015      *          *          0          0         
C-10D-10E        MC-10D           MC-10E           36.4       0.015      *          *          0          0         
C-10E-10F        MC-10E           MC-10F           57.6       0.015      *          *          0          0         
C-10F-B          MC-10F           LAT-B            321.5      0.015      *          *          0          0         
C-B-11           LAT-B            MC-11            146.5      0.015      *          *          0          0         
C1-Z             JZ-1             JZ-2             5          0.018      *          *          0          0         
C2-Z             JZ-2             OF-Z             100        0.018      *          *          0          0         
C1-1             J1-1             J2-1             5          0.018      *          *          0          0         
C2-1             J2-1             OF-1             100        0.018      *          *          0          0         
C1-1A            J1-1A            J2-1A            5          0.018      *          *          0          0         
C2-1A            J2-1A            OF-1A            100        0.018      *          *          0          0         
C1-2             J1-2             J2-2             5          0.018      *          *          0          0         
C2-2             J2-2             OF-2             100        0.018      *          *          0          0         
C1-2A            J1-2A            J2-2A            5          0.018      *          *          0          0         
C2-2A            J2-2A            OF-2A            100        0.018      *          *          0          0         
C1-3             J1-3             J2-3             5          0.018      *          *          0          0         
C2-3             J2-3             OF-3             100        0.015      *          *          0          0         
C1-3A            J1-3A            J2-3A            5          0.018      *          *          0          0         
C2-3A            J2-3A            OF-3A            100        0.018      *          *          0          0         
C1-3B            J1-3B            J2-3B            5          0.018      *          *          0          0         
C2-3B            J2-3B            OF-3B            100        0.018      *          *          0          0         
C1-A             J1-A             J2-A             5          0.025      *          *          0          0         
C2-A             J2-A             OF-A             100        0.025      *          *          0          0         
C1-4             J1-4             J2-4             5          0.018      *          *          0          0         
C2-4             J2-4             OF-4             100        0.018      *          *          0          0         
C1-5             J1-5             J2-5             5          0.018      *          *          0          0         
C2-5             J2-5             OF-5             100        0.018      *          *          0          0         
C1-5A            J1-5A            J2-5A            5          0.018      *          *          0          0         
C2-5A            J2-5A            OF-5A            100        0.018      *          *          0          0         
C1-5B            J1-5B            J2-5B            5          0.018      *          *          0          0         
C2-5B            J2-5B            OF-5B            100        0.018      *          *          0          0         
C1-6             J1-6             J2-6             5          0.018      *          *          0          0         
C2-6             J2-6             OF-6             100        0.018      *          *          0          0         
C1-6A            J1-6A            J2-6A            5          0.018      *          *          0          0         
C2-6A            J2-6A            OF-6A            100        0.018      *          *          0          0         
C1-6B            J1-6B            J2-6B            5          0.018      *          *          0          0         
C2-6B            J2-6B            OF-6B            100        0.018      *          *          0          0         
C1-7             J1-7             J2-7             5          0.018      *          *          0          0         
C2-7             J2-7             OF-7             100        0.018      *          *          0          0         
C1-8             J1-8             J2-8             5          0.018      *          *          0          0         
C2-8             J2-8             OF-8             100        0.018      *          *          0          0         
C1-9             J1-9             J2-9             5          0.018      *          *          0          0         
C2-9             J2-9             OF-9             100        0.018      *          *          0          0         
C1-10            J1-10            J2-10            100        0.018      *          *          0          0         
C2-10            J2-10            OF-10            100        0.018      *          *          0          0         
C1-10A           J1-10A           J2-10A           5          0.018      *          *          0          0         
C2-10A           J2-10A           OF-10A           100        0.018      *          *          0          0         
C1-10B           J1-10B           J2-10B           5          0.018      *          *          0          0         
C2-10B           J2-10B           OF-10B           100        0.018      *          *          0          0         
C1-10C           J1-10C           J2-10C           5          0.018      *          *          0          0         
C2-10C           J2-10C           OF-10C           100        0.018      *          *          0          0         
C1-10D           J1-10D           J2-10D           5          0.018      *          *          0          0         
C2-10D           J2-10D           OF-10D           100        0.018      *          *          0          0         
C1-10E           J1-10E           J2-10E           5          0.018      *          *          0          0         
C2-10E           J2-10E           OF-10E           100        0.018      *          *          0          0         
C1-10F           J1-10F           J2-10F           5          0.018      *          *          0          0         
C2-10F           J2-10F           OF-10F           100        0.018      *          *          0          0         
C1-B             J1-B             J2-B             5          0.025      *          *          0          0         
C2-B             J2-B             OF-B             100        0.025      *          *          0          0         
C-0-Z            J1               MC-Z             13.5       0.015      *          *          0          0         
C-A-4            LAT-A            MC-4             227.4      0.015      *          *          0          0         

[ORIFICES]
;;Name           From Node        To Node          Type         Offset     Qcoeff     Gated    CloseTime 
;;-------------- ---------------- ---------------- ------------ ---------- ---------- -------- ----------
OR-0             ZamoraDam        J1               SIDE         *          0.65       NO       0.5       
OR-Z             MC-Z             JZ-1             SIDE         21.495     0.65       NO       0         
OR-1             MC-1             J1-1             SIDE         *          0.65       NO       0         
OR-1A            MC-1A            J1-1A            SIDE         21.282     0.65       NO       0         
OR-2             MC-2             J1-2             SIDE         *          0.65       NO       0         
OR-2A            MC-2A            J1-2A            SIDE         21.026     0.65       NO       0         
OR-3             MC-3             J1-3             SIDE         *          0.65       NO       0         
OR-3A            MC-3A            J1-3A            SIDE         20.762     0.65       NO       0         
OR-3B            MC-3B            J1-3B            SIDE         20.622     0.65       NO       0         
OR-A             LAT-A            J1-A             SIDE         *          0.65       NO       0         
OR-4             MC-4             J1-4             SIDE         *          0.65       NO       0         
OR-5             MC-5             J1-5             SIDE         *          0.65       NO       0         
OR-5A            MC-5A            J1-5A            SIDE         20.312     0.65       NO       0         
OR-5B            MC-5B            J1-5B            SIDE         20.251     0.65       NO       0         
OR-6             MC-6             J1-6             SIDE         *          0.65       NO       0         
OR-6A            MC-6A            J1-6A            SIDE         20.104     0.65       NO       0         
OR-6B            MC-6B            J1-6B            SIDE         20.080     0.65       NO       0         
OR-7             MC-7             J1-7             SIDE         *          0.65       NO       0         
OR-8             MC-8             J1-8             SIDE         *          0.65       NO       0         
OR-9             MC-9             J1-9             SIDE         *          0.65       NO       0         
OR-10            MC-10            J1-10            SIDE         *          0.65       NO       0         
OR-10A           MC-10A           J1-10A           SIDE         19.721     0.65       NO       0         
OR-10B           MC-10B           J1-10B           SIDE         19.642     0.65       NO       0         
OR-10C           MC-10C           J1-10C           SIDE         19.636     0.65       NO       0         
OR-10D           MC-10D           J1-10D           SIDE         19.617     0.65       NO       0         
OR-10E           MC-10E           J1-10E           SIDE         19.589     0.65       NO       0         
OR-10F           MC-10F           J1-10F           SIDE         19.428     0.65       NO       0         
OR-B             LAT-B            J1-B             SIDE         *          0.65       NO       0         

[XSECTIONS]
;;Link           Shape        Geom1            Geom2      Geom3      Geom4      Barrels    Culvert   
;;-------------- ------------ ---------------- ---------- ---------- ---------- ---------- ----------
C-Z-1            RECT_OPEN    1.2              1.65       0          0          1                    
C-1-1A           RECT_OPEN    1.2              1.65       0          0          1                    
C-1A-2           RECT_OPEN    1.2              1.65       0          0          1                    
C-2-2A           RECT_OPEN    1.2              1.65       0          0          1                    
C-2A-3           RECT_OPEN    1.2              1.65       0          0          1                    
C-3-3A           RECT_OPEN    1.2              1.65       0          0          1                    
C-3A-3B          RECT_OPEN    1.2              1.65       0          0          1                    
C-3B-A           RECT_OPEN    1.2              1.65       0          0          1                    
C-4-5            RECT_OPEN    1.2              1.65       0          0          1                    
C-5-5A           TRAPEZOIDAL  1.2              1.65       1          1          1                    
C-5A-5B          TRAPEZOIDAL  1.2              1.65       1          1          1                    
C-5B-6           TRAPEZOIDAL  1.2              1.65       1          1          1                    
C-6-6A           TRAPEZOIDAL  1.2              1.65       1          1          1                    
C-6A-6B          TRAPEZOIDAL  1.2              1.65       1          1          1                    
C-6B-7           TRAPEZOIDAL  1.2              1.65       1          1          1                    
C-7-8            TRAPEZOIDAL  1.2              1.65       1          1          1                    
C-8-9            TRAPEZOIDAL  1.2              1.65       1          1          1                    
C-9-10           TRAPEZOIDAL  1.2              1.65       1          1          1                    
C-10-10A         TRAPEZOIDAL  1.2              1.65       1          1          1                    
C-10A-10B        TRAPEZOIDAL  1.2              1.65       1          1          1                    
C-10B-10C        TRAPEZOIDAL  1.2              1.65       1          1          1                    
C-10C-10D        TRAPEZOIDAL  1.2              1.65       1          1          1                    
C-10D-10E        TRAPEZOIDAL  1.2              1.65       1          1          1                    
C-10E-10F        TRAPEZOIDAL  1.2              1.65       1          1          1                    
C-10F-B          TRAPEZOIDAL  1.2              1.65       1          1          1                    
C-B-11           TRAPEZOIDAL  1.1              1.5        1          1          1                    
C1-Z             RECT_OPEN    0.4              0.4        0          0          1                    
C2-Z             RECT_OPEN    0.4              0.4        0          0          1                    
C1-1             RECT_OPEN    0.4              0.4        0          0          1                    
C2-1             RECT_OPEN    0.4              0.4        0          0          1                    
C1-1A            RECT_OPEN    0.4              0.4        0          0          1                    
C2-1A            RECT_OPEN    0.4              0.4        0          0          1                    
C1-2             RECT_OPEN    0.4              0.4        0          0          1                    
C2-2             RECT_OPEN    0.4              0.4        0          0          1                    
C1-2A            RECT_OPEN    0.4              0.4        0          0          1                    
C2-2A            RECT_OPEN    0.4              0.4        0          0          1                    
C1-3             RECT_OPEN    0.4              0.4        0          0          1                    
C2-3             RECT_OPEN    5                3          0          0          1                    
C1-3A            RECT_OPEN    0.4              0.4        0          0          1                    
C2-3A            RECT_OPEN    0.4              0.4        0          0          1                    
C1-3B            RECT_OPEN    0.4              0.4        0          0          1                    
C2-3B            RECT_OPEN    0.4              0.4        0          0          1                    
C1-A             RECT_OPEN    0.8              0.45       0          0          1                    
C2-A             RECT_OPEN    0.8              0.45       0          0          1                    
C1-4             RECT_OPEN    0.4              0.4        0          0          1                    
C2-4             RECT_OPEN    0.4              0.4        0          0          1                    
C1-5             RECT_OPEN    0.4              0.4        0          0          1                    
C2-5             RECT_OPEN    0.4              0.4        0          0          1                    
C1-5A            RECT_OPEN    0.4              0.4        0          0          1                    
C2-5A            RECT_OPEN    0.4              0.4        0          0          1                    
C1-5B            RECT_OPEN    0.4              0.4        0          0          1                    
C2-5B            RECT_OPEN    0.4              0.4        0          0          1                    
C1-6             RECT_OPEN    0.4              0.4        0          0          1                    
C2-6             RECT_OPEN    0.4              0.4        0          0          1                    
C1-6A            RECT_OPEN    0.4              0.4        0          0          1                    
C2-6A            RECT_OPEN    0.4              0.4        0          0          1                    
C1-6B            RECT_OPEN    0.4              0.4        0          0          1                    
C2-6B            RECT_OPEN    0.4              0.4        0          0          1                    
C1-7             RECT_OPEN    0.4              0.4        0          0          1                    
C2-7             RECT_OPEN    0.4              0.4        0          0          1                    
C1-8             RECT_OPEN    0.4              0.4        0          0          1                    
C2-8             RECT_OPEN    0.4              0.4        0          0          1                    